[root]
type=Root
children=system
eventq_index=0
full_system=false
sim_quantum=0
time_sync_enable=false
time_sync_period=100000000000
time_sync_spin_threshold=100000000

[system]
type=System
children=clk_domain cpu_cluster dvfs_handler mem_ctrls membus voltage_domain
boot_osflags=a
cache_line_size=64
clk_domain=system.clk_domain
default_p_state=UNDEFINED
eventq_index=0
exit_on_work_items=false
init_param=0
kernel=
kernel_addr_check=true
kernel_extras=
load_addr_mask=18446744073709551615
load_offset=0
mem_mode=timing
mem_ranges=0:2147483647:0:0:0:0
memories=system.mem_ctrls
mmap_using_noreserve=false
multi_thread=false
num_work_ids=16
p_state_clk_gate_bins=20
p_state_clk_gate_max=1000000000000
p_state_clk_gate_min=1000
power_model=
readfile=
symbolfile=
thermal_components=
thermal_model=Null
work_begin_ckpt_count=0
work_begin_cpu_id_exit=-1
work_begin_exit_count=0
work_cpus_ckpt_count=0
work_end_ckpt_count=0
work_end_exit_count=0
work_item_id=-1
system_port=system.membus.slave[0]

[system.clk_domain]
type=SrcClockDomain
clock=1000
domain_id=-1
eventq_index=0
init_perf_level=0
voltage_domain=system.voltage_domain

[system.cpu_cluster]
type=SubSystem
children=clk_domain cpus l2 toL2Bus voltage_domain
eventq_index=0
thermal_domain=Null

[system.cpu_cluster.clk_domain]
type=SrcClockDomain
clock=250
domain_id=-1
eventq_index=0
init_perf_level=0
voltage_domain=system.cpu_cluster.voltage_domain

[system.cpu_cluster.cpus]
type=MinorCPU
children=branchPred dcache dstage2_mmu dtb dtb_walker_cache executeFuncUnits icache interrupts isa istage2_mmu itb itb_walker_cache tracer workload
branchPred=system.cpu_cluster.cpus.branchPred
checker=Null
clk_domain=system.cpu_cluster.clk_domain
cpu_id=0
decodeCycleInput=true
decodeInputBufferSize=3
decodeInputWidth=2
decodeToExecuteForwardDelay=1
default_p_state=UNDEFINED
do_checkpoint_insts=true
do_quiesce=true
do_statistics_insts=true
dstage2_mmu=system.cpu_cluster.cpus.dstage2_mmu
dtb=system.cpu_cluster.cpus.dtb
enableIdling=true
eventq_index=0
executeAllowEarlyMemoryIssue=true
executeBranchDelay=1
executeCommitLimit=2
executeCycleInput=true
executeFuncUnits=system.cpu_cluster.cpus.executeFuncUnits
executeInputBufferSize=7
executeInputWidth=2
executeIssueLimit=2
executeLSQMaxStoreBufferStoresPerCycle=2
executeLSQRequestsQueueSize=1
executeLSQStoreBufferSize=5
executeLSQTransfersQueueSize=2
executeMaxAccessesInMemory=2
executeMemoryCommitLimit=1
executeMemoryIssueLimit=1
executeMemoryWidth=0
executeSetTraceTimeOnCommit=true
executeSetTraceTimeOnIssue=false
fetch1FetchLimit=1
fetch1LineSnapWidth=0
fetch1LineWidth=0
fetch1ToFetch2BackwardDelay=1
fetch1ToFetch2ForwardDelay=1
fetch2CycleInput=true
fetch2InputBufferSize=2
fetch2ToDecodeForwardDelay=1
function_trace=false
function_trace_start=0
interrupts=system.cpu_cluster.cpus.interrupts
isa=system.cpu_cluster.cpus.isa
istage2_mmu=system.cpu_cluster.cpus.istage2_mmu
itb=system.cpu_cluster.cpus.itb
max_insts_all_threads=0
max_insts_any_thread=0
max_loads_all_threads=0
max_loads_any_thread=0
numThreads=1
p_state_clk_gate_bins=20
p_state_clk_gate_max=1000000000000
p_state_clk_gate_min=1000
power_model=
profile=0
progress_interval=0
simpoint_start_insts=
socket_id=0
switched_out=false
syscallRetryLatency=10000
system=system
threadPolicy=RoundRobin
tracer=system.cpu_cluster.cpus.tracer
wait_for_remote_gdb=false
workload=system.cpu_cluster.cpus.workload
dcache_port=system.cpu_cluster.cpus.dcache.cpu_side
icache_port=system.cpu_cluster.cpus.icache.cpu_side

[system.cpu_cluster.cpus.branchPred]
type=TournamentBP
BTBEntries=4096
BTBTagSize=16
RASSize=16
choiceCtrBits=2
choicePredictorSize=8192
eventq_index=0
globalCtrBits=2
globalPredictorSize=8192
indirectHashGHR=true
indirectHashTargets=true
indirectPathLength=3
indirectSets=256
indirectTagSize=16
indirectWays=2
instShiftAmt=2
localCtrBits=2
localHistoryTableSize=2048
localPredictorSize=2048
numThreads=1
useIndirect=true

[system.cpu_cluster.cpus.dcache]
type=Cache
children=tags
addr_ranges=0:18446744073709551615:0:0:0:0
assoc=2
clk_domain=system.cpu_cluster.clk_domain
clusivity=mostly_incl
data_latency=2
default_p_state=UNDEFINED
demand_mshr_reserve=1
eventq_index=0
is_read_only=false
max_miss_count=0
mshrs=16
p_state_clk_gate_bins=20
p_state_clk_gate_max=1000000000000
p_state_clk_gate_min=1000
power_model=
prefetch_on_access=false
prefetcher=Null
response_latency=1
sequential_access=false
size=32768
system=system
tag_latency=2
tags=system.cpu_cluster.cpus.dcache.tags
tgts_per_mshr=16
write_buffers=16
writeback_clean=false
cpu_side=system.cpu_cluster.cpus.dcache_port
mem_side=system.cpu_cluster.toL2Bus.slave[1]

[system.cpu_cluster.cpus.dcache.tags]
type=LRU
assoc=2
block_size=64
clk_domain=system.cpu_cluster.clk_domain
data_latency=2
default_p_state=UNDEFINED
eventq_index=0
p_state_clk_gate_bins=20
p_state_clk_gate_max=1000000000000
p_state_clk_gate_min=1000
power_model=
sequential_access=false
size=32768
tag_latency=2

[system.cpu_cluster.cpus.dstage2_mmu]
type=ArmStage2MMU
children=stage2_tlb
eventq_index=0
stage2_tlb=system.cpu_cluster.cpus.dstage2_mmu.stage2_tlb
sys=system
tlb=system.cpu_cluster.cpus.dtb

[system.cpu_cluster.cpus.dstage2_mmu.stage2_tlb]
type=ArmTLB
children=walker
eventq_index=0
is_stage2=true
size=32
sys=system
walker=system.cpu_cluster.cpus.dstage2_mmu.stage2_tlb.walker

[system.cpu_cluster.cpus.dstage2_mmu.stage2_tlb.walker]
type=ArmTableWalker
clk_domain=system.cpu_cluster.clk_domain
default_p_state=UNDEFINED
eventq_index=0
is_stage2=true
num_squash_per_cycle=2
p_state_clk_gate_bins=20
p_state_clk_gate_max=1000000000000
p_state_clk_gate_min=1000
power_model=
sys=system

[system.cpu_cluster.cpus.dtb]
type=ArmTLB
children=walker
eventq_index=0
is_stage2=false
size=64
sys=system
walker=system.cpu_cluster.cpus.dtb.walker

[system.cpu_cluster.cpus.dtb.walker]
type=ArmTableWalker
clk_domain=system.cpu_cluster.clk_domain
default_p_state=UNDEFINED
eventq_index=0
is_stage2=false
num_squash_per_cycle=2
p_state_clk_gate_bins=20
p_state_clk_gate_max=1000000000000
p_state_clk_gate_min=1000
power_model=
sys=system
port=system.cpu_cluster.cpus.dtb_walker_cache.cpu_side

[system.cpu_cluster.cpus.dtb_walker_cache]
type=Cache
children=tags
addr_ranges=0:18446744073709551615:0:0:0:0
assoc=8
clk_domain=system.cpu_cluster.clk_domain
clusivity=mostly_incl
data_latency=4
default_p_state=UNDEFINED
demand_mshr_reserve=1
eventq_index=0
is_read_only=true
max_miss_count=0
mshrs=6
p_state_clk_gate_bins=20
p_state_clk_gate_max=1000000000000
p_state_clk_gate_min=1000
power_model=
prefetch_on_access=false
prefetcher=Null
response_latency=4
sequential_access=false
size=1024
system=system
tag_latency=4
tags=system.cpu_cluster.cpus.dtb_walker_cache.tags
tgts_per_mshr=8
write_buffers=16
writeback_clean=true
cpu_side=system.cpu_cluster.cpus.dtb.walker.port
mem_side=system.cpu_cluster.toL2Bus.slave[3]

[system.cpu_cluster.cpus.dtb_walker_cache.tags]
type=LRU
assoc=8
block_size=64
clk_domain=system.cpu_cluster.clk_domain
data_latency=4
default_p_state=UNDEFINED
eventq_index=0
p_state_clk_gate_bins=20
p_state_clk_gate_max=1000000000000
p_state_clk_gate_min=1000
power_model=
sequential_access=false
size=1024
tag_latency=4

[system.cpu_cluster.cpus.executeFuncUnits]
type=MinorFUPool
children=funcUnits0 funcUnits1 funcUnits2 funcUnits3 funcUnits4 funcUnits5 funcUnits6
eventq_index=0
funcUnits=system.cpu_cluster.cpus.executeFuncUnits.funcUnits0 system.cpu_cluster.cpus.executeFuncUnits.funcUnits1 system.cpu_cluster.cpus.executeFuncUnits.funcUnits2 system.cpu_cluster.cpus.executeFuncUnits.funcUnits3 system.cpu_cluster.cpus.executeFuncUnits.funcUnits4 system.cpu_cluster.cpus.executeFuncUnits.funcUnits5 system.cpu_cluster.cpus.executeFuncUnits.funcUnits6

[system.cpu_cluster.cpus.executeFuncUnits.funcUnits0]
type=MinorFU
children=opClasses timings
cantForwardFromFUIndices=
eventq_index=0
issueLat=1
opClasses=system.cpu_cluster.cpus.executeFuncUnits.funcUnits0.opClasses
opLat=3
timings=system.cpu_cluster.cpus.executeFuncUnits.funcUnits0.timings

[system.cpu_cluster.cpus.executeFuncUnits.funcUnits0.opClasses]
type=MinorOpClassSet
children=opClasses
eventq_index=0
opClasses=system.cpu_cluster.cpus.executeFuncUnits.funcUnits0.opClasses.opClasses

[system.cpu_cluster.cpus.executeFuncUnits.funcUnits0.opClasses.opClasses]
type=MinorOpClass
eventq_index=0
opClass=IntAlu

[system.cpu_cluster.cpus.executeFuncUnits.funcUnits0.timings]
type=MinorFUTiming
children=opClasses
description=Int
eventq_index=0
extraAssumedLat=0
extraCommitLat=0
extraCommitLatExpr=Null
mask=0
match=0
opClasses=system.cpu_cluster.cpus.executeFuncUnits.funcUnits0.timings.opClasses
srcRegsRelativeLats=2
suppress=false

[system.cpu_cluster.cpus.executeFuncUnits.funcUnits0.timings.opClasses]
type=MinorOpClassSet
eventq_index=0
opClasses=

[system.cpu_cluster.cpus.executeFuncUnits.funcUnits1]
type=MinorFU
children=opClasses timings
cantForwardFromFUIndices=
eventq_index=0
issueLat=1
opClasses=system.cpu_cluster.cpus.executeFuncUnits.funcUnits1.opClasses
opLat=3
timings=system.cpu_cluster.cpus.executeFuncUnits.funcUnits1.timings

[system.cpu_cluster.cpus.executeFuncUnits.funcUnits1.opClasses]
type=MinorOpClassSet
children=opClasses
eventq_index=0
opClasses=system.cpu_cluster.cpus.executeFuncUnits.funcUnits1.opClasses.opClasses

[system.cpu_cluster.cpus.executeFuncUnits.funcUnits1.opClasses.opClasses]
type=MinorOpClass
eventq_index=0
opClass=IntAlu

[system.cpu_cluster.cpus.executeFuncUnits.funcUnits1.timings]
type=MinorFUTiming
children=opClasses
description=Int
eventq_index=0
extraAssumedLat=0
extraCommitLat=0
extraCommitLatExpr=Null
mask=0
match=0
opClasses=system.cpu_cluster.cpus.executeFuncUnits.funcUnits1.timings.opClasses
srcRegsRelativeLats=2
suppress=false

[system.cpu_cluster.cpus.executeFuncUnits.funcUnits1.timings.opClasses]
type=MinorOpClassSet
eventq_index=0
opClasses=

[system.cpu_cluster.cpus.executeFuncUnits.funcUnits2]
type=MinorFU
children=opClasses timings
cantForwardFromFUIndices=
eventq_index=0
issueLat=1
opClasses=system.cpu_cluster.cpus.executeFuncUnits.funcUnits2.opClasses
opLat=3
timings=system.cpu_cluster.cpus.executeFuncUnits.funcUnits2.timings

[system.cpu_cluster.cpus.executeFuncUnits.funcUnits2.opClasses]
type=MinorOpClassSet
children=opClasses
eventq_index=0
opClasses=system.cpu_cluster.cpus.executeFuncUnits.funcUnits2.opClasses.opClasses

[system.cpu_cluster.cpus.executeFuncUnits.funcUnits2.opClasses.opClasses]
type=MinorOpClass
eventq_index=0
opClass=IntMult

[system.cpu_cluster.cpus.executeFuncUnits.funcUnits2.timings]
type=MinorFUTiming
children=opClasses
description=Mul
eventq_index=0
extraAssumedLat=0
extraCommitLat=0
extraCommitLatExpr=Null
mask=0
match=0
opClasses=system.cpu_cluster.cpus.executeFuncUnits.funcUnits2.timings.opClasses
srcRegsRelativeLats=0
suppress=false

[system.cpu_cluster.cpus.executeFuncUnits.funcUnits2.timings.opClasses]
type=MinorOpClassSet
eventq_index=0
opClasses=

[system.cpu_cluster.cpus.executeFuncUnits.funcUnits3]
type=MinorFU
children=opClasses
cantForwardFromFUIndices=
eventq_index=0
issueLat=9
opClasses=system.cpu_cluster.cpus.executeFuncUnits.funcUnits3.opClasses
opLat=9
timings=

[system.cpu_cluster.cpus.executeFuncUnits.funcUnits3.opClasses]
type=MinorOpClassSet
children=opClasses
eventq_index=0
opClasses=system.cpu_cluster.cpus.executeFuncUnits.funcUnits3.opClasses.opClasses

[system.cpu_cluster.cpus.executeFuncUnits.funcUnits3.opClasses.opClasses]
type=MinorOpClass
eventq_index=0
opClass=IntDiv

[system.cpu_cluster.cpus.executeFuncUnits.funcUnits4]
type=MinorFU
children=opClasses timings
cantForwardFromFUIndices=
eventq_index=0
issueLat=1
opClasses=system.cpu_cluster.cpus.executeFuncUnits.funcUnits4.opClasses
opLat=6
timings=system.cpu_cluster.cpus.executeFuncUnits.funcUnits4.timings

[system.cpu_cluster.cpus.executeFuncUnits.funcUnits4.opClasses]
type=MinorOpClassSet
children=opClasses00 opClasses01 opClasses02 opClasses03 opClasses04 opClasses05 opClasses06 opClasses07 opClasses08 opClasses09 opClasses10 opClasses11 opClasses12 opClasses13 opClasses14 opClasses15 opClasses16 opClasses17 opClasses18 opClasses19 opClasses20 opClasses21 opClasses22 opClasses23 opClasses24 opClasses25 opClasses26 opClasses27
eventq_index=0
opClasses=system.cpu_cluster.cpus.executeFuncUnits.funcUnits4.opClasses.opClasses00 system.cpu_cluster.cpus.executeFuncUnits.funcUnits4.opClasses.opClasses01 system.cpu_cluster.cpus.executeFuncUnits.funcUnits4.opClasses.opClasses02 system.cpu_cluster.cpus.executeFuncUnits.funcUnits4.opClasses.opClasses03 system.cpu_cluster.cpus.executeFuncUnits.funcUnits4.opClasses.opClasses04 system.cpu_cluster.cpus.executeFuncUnits.funcUnits4.opClasses.opClasses05 system.cpu_cluster.cpus.executeFuncUnits.funcUnits4.opClasses.opClasses06 system.cpu_cluster.cpus.executeFuncUnits.funcUnits4.opClasses.opClasses07 system.cpu_cluster.cpus.executeFuncUnits.funcUnits4.opClasses.opClasses08 system.cpu_cluster.cpus.executeFuncUnits.funcUnits4.opClasses.opClasses09 system.cpu_cluster.cpus.executeFuncUnits.funcUnits4.opClasses.opClasses10 system.cpu_cluster.cpus.executeFuncUnits.funcUnits4.opClasses.opClasses11 system.cpu_cluster.cpus.executeFuncUnits.funcUnits4.opClasses.opClasses12 system.cpu_cluster.cpus.executeFuncUnits.funcUnits4.opClasses.opClasses13 system.cpu_cluster.cpus.executeFuncUnits.funcUnits4.opClasses.opClasses14 system.cpu_cluster.cpus.executeFuncUnits.funcUnits4.opClasses.opClasses15 system.cpu_cluster.cpus.executeFuncUnits.funcUnits4.opClasses.opClasses16 system.cpu_cluster.cpus.executeFuncUnits.funcUnits4.opClasses.opClasses17 system.cpu_cluster.cpus.executeFuncUnits.funcUnits4.opClasses.opClasses18 system.cpu_cluster.cpus.executeFuncUnits.funcUnits4.opClasses.opClasses19 system.cpu_cluster.cpus.executeFuncUnits.funcUnits4.opClasses.opClasses20 system.cpu_cluster.cpus.executeFuncUnits.funcUnits4.opClasses.opClasses21 system.cpu_cluster.cpus.executeFuncUnits.funcUnits4.opClasses.opClasses22 system.cpu_cluster.cpus.executeFuncUnits.funcUnits4.opClasses.opClasses23 system.cpu_cluster.cpus.executeFuncUnits.funcUnits4.opClasses.opClasses24 system.cpu_cluster.cpus.executeFuncUnits.funcUnits4.opClasses.opClasses25 system.cpu_cluster.cpus.executeFuncUnits.funcUnits4.opClasses.opClasses26 system.cpu_cluster.cpus.executeFuncUnits.funcUnits4.opClasses.opClasses27

[system.cpu_cluster.cpus.executeFuncUnits.funcUnits4.opClasses.opClasses00]
type=MinorOpClass
eventq_index=0
opClass=FloatAdd

[system.cpu_cluster.cpus.executeFuncUnits.funcUnits4.opClasses.opClasses01]
type=MinorOpClass
eventq_index=0
opClass=FloatCmp

[system.cpu_cluster.cpus.executeFuncUnits.funcUnits4.opClasses.opClasses02]
type=MinorOpClass
eventq_index=0
opClass=FloatCvt

[system.cpu_cluster.cpus.executeFuncUnits.funcUnits4.opClasses.opClasses03]
type=MinorOpClass
eventq_index=0
opClass=FloatMisc

[system.cpu_cluster.cpus.executeFuncUnits.funcUnits4.opClasses.opClasses04]
type=MinorOpClass
eventq_index=0
opClass=FloatMult

[system.cpu_cluster.cpus.executeFuncUnits.funcUnits4.opClasses.opClasses05]
type=MinorOpClass
eventq_index=0
opClass=FloatMultAcc

[system.cpu_cluster.cpus.executeFuncUnits.funcUnits4.opClasses.opClasses06]
type=MinorOpClass
eventq_index=0
opClass=FloatDiv

[system.cpu_cluster.cpus.executeFuncUnits.funcUnits4.opClasses.opClasses07]
type=MinorOpClass
eventq_index=0
opClass=FloatSqrt

[system.cpu_cluster.cpus.executeFuncUnits.funcUnits4.opClasses.opClasses08]
type=MinorOpClass
eventq_index=0
opClass=SimdAdd

[system.cpu_cluster.cpus.executeFuncUnits.funcUnits4.opClasses.opClasses09]
type=MinorOpClass
eventq_index=0
opClass=SimdAddAcc

[system.cpu_cluster.cpus.executeFuncUnits.funcUnits4.opClasses.opClasses10]
type=MinorOpClass
eventq_index=0
opClass=SimdAlu

[system.cpu_cluster.cpus.executeFuncUnits.funcUnits4.opClasses.opClasses11]
type=MinorOpClass
eventq_index=0
opClass=SimdCmp

[system.cpu_cluster.cpus.executeFuncUnits.funcUnits4.opClasses.opClasses12]
type=MinorOpClass
eventq_index=0
opClass=SimdCvt

[system.cpu_cluster.cpus.executeFuncUnits.funcUnits4.opClasses.opClasses13]
type=MinorOpClass
eventq_index=0
opClass=SimdMisc

[system.cpu_cluster.cpus.executeFuncUnits.funcUnits4.opClasses.opClasses14]
type=MinorOpClass
eventq_index=0
opClass=SimdMult

[system.cpu_cluster.cpus.executeFuncUnits.funcUnits4.opClasses.opClasses15]
type=MinorOpClass
eventq_index=0
opClass=SimdMultAcc

[system.cpu_cluster.cpus.executeFuncUnits.funcUnits4.opClasses.opClasses16]
type=MinorOpClass
eventq_index=0
opClass=SimdShift

[system.cpu_cluster.cpus.executeFuncUnits.funcUnits4.opClasses.opClasses17]
type=MinorOpClass
eventq_index=0
opClass=SimdShiftAcc

[system.cpu_cluster.cpus.executeFuncUnits.funcUnits4.opClasses.opClasses18]
type=MinorOpClass
eventq_index=0
opClass=SimdSqrt

[system.cpu_cluster.cpus.executeFuncUnits.funcUnits4.opClasses.opClasses19]
type=MinorOpClass
eventq_index=0
opClass=SimdFloatAdd

[system.cpu_cluster.cpus.executeFuncUnits.funcUnits4.opClasses.opClasses20]
type=MinorOpClass
eventq_index=0
opClass=SimdFloatAlu

[system.cpu_cluster.cpus.executeFuncUnits.funcUnits4.opClasses.opClasses21]
type=MinorOpClass
eventq_index=0
opClass=SimdFloatCmp

[system.cpu_cluster.cpus.executeFuncUnits.funcUnits4.opClasses.opClasses22]
type=MinorOpClass
eventq_index=0
opClass=SimdFloatCvt

[system.cpu_cluster.cpus.executeFuncUnits.funcUnits4.opClasses.opClasses23]
type=MinorOpClass
eventq_index=0
opClass=SimdFloatDiv

[system.cpu_cluster.cpus.executeFuncUnits.funcUnits4.opClasses.opClasses24]
type=MinorOpClass
eventq_index=0
opClass=SimdFloatMisc

[system.cpu_cluster.cpus.executeFuncUnits.funcUnits4.opClasses.opClasses25]
type=MinorOpClass
eventq_index=0
opClass=SimdFloatMult

[system.cpu_cluster.cpus.executeFuncUnits.funcUnits4.opClasses.opClasses26]
type=MinorOpClass
eventq_index=0
opClass=SimdFloatMultAcc

[system.cpu_cluster.cpus.executeFuncUnits.funcUnits4.opClasses.opClasses27]
type=MinorOpClass
eventq_index=0
opClass=SimdFloatSqrt

[system.cpu_cluster.cpus.executeFuncUnits.funcUnits4.timings]
type=MinorFUTiming
children=opClasses
description=FloatSimd
eventq_index=0
extraAssumedLat=0
extraCommitLat=0
extraCommitLatExpr=Null
mask=0
match=0
opClasses=system.cpu_cluster.cpus.executeFuncUnits.funcUnits4.timings.opClasses
srcRegsRelativeLats=2
suppress=false

[system.cpu_cluster.cpus.executeFuncUnits.funcUnits4.timings.opClasses]
type=MinorOpClassSet
eventq_index=0
opClasses=

[system.cpu_cluster.cpus.executeFuncUnits.funcUnits5]
type=MinorFU
children=opClasses timings
cantForwardFromFUIndices=
eventq_index=0
issueLat=1
opClasses=system.cpu_cluster.cpus.executeFuncUnits.funcUnits5.opClasses
opLat=1
timings=system.cpu_cluster.cpus.executeFuncUnits.funcUnits5.timings

[system.cpu_cluster.cpus.executeFuncUnits.funcUnits5.opClasses]
type=MinorOpClassSet
children=opClasses0 opClasses1 opClasses2 opClasses3
eventq_index=0
opClasses=system.cpu_cluster.cpus.executeFuncUnits.funcUnits5.opClasses.opClasses0 system.cpu_cluster.cpus.executeFuncUnits.funcUnits5.opClasses.opClasses1 system.cpu_cluster.cpus.executeFuncUnits.funcUnits5.opClasses.opClasses2 system.cpu_cluster.cpus.executeFuncUnits.funcUnits5.opClasses.opClasses3

[system.cpu_cluster.cpus.executeFuncUnits.funcUnits5.opClasses.opClasses0]
type=MinorOpClass
eventq_index=0
opClass=MemRead

[system.cpu_cluster.cpus.executeFuncUnits.funcUnits5.opClasses.opClasses1]
type=MinorOpClass
eventq_index=0
opClass=MemWrite

[system.cpu_cluster.cpus.executeFuncUnits.funcUnits5.opClasses.opClasses2]
type=MinorOpClass
eventq_index=0
opClass=FloatMemRead

[system.cpu_cluster.cpus.executeFuncUnits.funcUnits5.opClasses.opClasses3]
type=MinorOpClass
eventq_index=0
opClass=FloatMemWrite

[system.cpu_cluster.cpus.executeFuncUnits.funcUnits5.timings]
type=MinorFUTiming
children=opClasses
description=Mem
eventq_index=0
extraAssumedLat=2
extraCommitLat=0
extraCommitLatExpr=Null
mask=0
match=0
opClasses=system.cpu_cluster.cpus.executeFuncUnits.funcUnits5.timings.opClasses
srcRegsRelativeLats=1
suppress=false

[system.cpu_cluster.cpus.executeFuncUnits.funcUnits5.timings.opClasses]
type=MinorOpClassSet
eventq_index=0
opClasses=

[system.cpu_cluster.cpus.executeFuncUnits.funcUnits6]
type=MinorFU
children=opClasses
cantForwardFromFUIndices=
eventq_index=0
issueLat=1
opClasses=system.cpu_cluster.cpus.executeFuncUnits.funcUnits6.opClasses
opLat=1
timings=

[system.cpu_cluster.cpus.executeFuncUnits.funcUnits6.opClasses]
type=MinorOpClassSet
children=opClasses0 opClasses1
eventq_index=0
opClasses=system.cpu_cluster.cpus.executeFuncUnits.funcUnits6.opClasses.opClasses0 system.cpu_cluster.cpus.executeFuncUnits.funcUnits6.opClasses.opClasses1

[system.cpu_cluster.cpus.executeFuncUnits.funcUnits6.opClasses.opClasses0]
type=MinorOpClass
eventq_index=0
opClass=IprAccess

[system.cpu_cluster.cpus.executeFuncUnits.funcUnits6.opClasses.opClasses1]
type=MinorOpClass
eventq_index=0
opClass=InstPrefetch

[system.cpu_cluster.cpus.icache]
type=Cache
children=tags
addr_ranges=0:18446744073709551615:0:0:0:0
assoc=3
clk_domain=system.cpu_cluster.clk_domain
clusivity=mostly_incl
data_latency=1
default_p_state=UNDEFINED
demand_mshr_reserve=1
eventq_index=0
is_read_only=true
max_miss_count=0
mshrs=4
p_state_clk_gate_bins=20
p_state_clk_gate_max=1000000000000
p_state_clk_gate_min=1000
power_model=
prefetch_on_access=false
prefetcher=Null
response_latency=1
sequential_access=false
size=49152
system=system
tag_latency=1
tags=system.cpu_cluster.cpus.icache.tags
tgts_per_mshr=8
write_buffers=8
writeback_clean=true
cpu_side=system.cpu_cluster.cpus.icache_port
mem_side=system.cpu_cluster.toL2Bus.slave[0]

[system.cpu_cluster.cpus.icache.tags]
type=LRU
assoc=3
block_size=64
clk_domain=system.cpu_cluster.clk_domain
data_latency=1
default_p_state=UNDEFINED
eventq_index=0
p_state_clk_gate_bins=20
p_state_clk_gate_max=1000000000000
p_state_clk_gate_min=1000
power_model=
sequential_access=false
size=49152
tag_latency=1

[system.cpu_cluster.cpus.interrupts]
type=ArmInterrupts
eventq_index=0

[system.cpu_cluster.cpus.isa]
type=ArmISA
decoderFlavour=Generic
eventq_index=0
fpsid=1090793632
id_aa64afr0_el1=0
id_aa64afr1_el1=0
id_aa64dfr0_el1=1052678
id_aa64dfr1_el1=0
id_aa64isar0_el1=0
id_aa64isar1_el1=0
id_aa64mmfr0_el1=15728642
id_aa64mmfr1_el1=0
id_isar0=34607377
id_isar1=34677009
id_isar2=555950401
id_isar3=17899825
id_isar4=268501314
id_isar5=0
id_mmfr0=270536963
id_mmfr1=0
id_mmfr2=19070976
id_mmfr3=34611729
midr=1091551472
pmu=Null
system=system
vecRegRenameMode=Full

[system.cpu_cluster.cpus.istage2_mmu]
type=ArmStage2MMU
children=stage2_tlb
eventq_index=0
stage2_tlb=system.cpu_cluster.cpus.istage2_mmu.stage2_tlb
sys=system
tlb=system.cpu_cluster.cpus.itb

[system.cpu_cluster.cpus.istage2_mmu.stage2_tlb]
type=ArmTLB
children=walker
eventq_index=0
is_stage2=true
size=32
sys=system
walker=system.cpu_cluster.cpus.istage2_mmu.stage2_tlb.walker

[system.cpu_cluster.cpus.istage2_mmu.stage2_tlb.walker]
type=ArmTableWalker
clk_domain=system.cpu_cluster.clk_domain
default_p_state=UNDEFINED
eventq_index=0
is_stage2=true
num_squash_per_cycle=2
p_state_clk_gate_bins=20
p_state_clk_gate_max=1000000000000
p_state_clk_gate_min=1000
power_model=
sys=system

[system.cpu_cluster.cpus.itb]
type=ArmTLB
children=walker
eventq_index=0
is_stage2=false
size=64
sys=system
walker=system.cpu_cluster.cpus.itb.walker

[system.cpu_cluster.cpus.itb.walker]
type=ArmTableWalker
clk_domain=system.cpu_cluster.clk_domain
default_p_state=UNDEFINED
eventq_index=0
is_stage2=false
num_squash_per_cycle=2
p_state_clk_gate_bins=20
p_state_clk_gate_max=1000000000000
p_state_clk_gate_min=1000
power_model=
sys=system
port=system.cpu_cluster.cpus.itb_walker_cache.cpu_side

[system.cpu_cluster.cpus.itb_walker_cache]
type=Cache
children=tags
addr_ranges=0:18446744073709551615:0:0:0:0
assoc=8
clk_domain=system.cpu_cluster.clk_domain
clusivity=mostly_incl
data_latency=4
default_p_state=UNDEFINED
demand_mshr_reserve=1
eventq_index=0
is_read_only=true
max_miss_count=0
mshrs=6
p_state_clk_gate_bins=20
p_state_clk_gate_max=1000000000000
p_state_clk_gate_min=1000
power_model=
prefetch_on_access=false
prefetcher=Null
response_latency=4
sequential_access=false
size=1024
system=system
tag_latency=4
tags=system.cpu_cluster.cpus.itb_walker_cache.tags
tgts_per_mshr=8
write_buffers=16
writeback_clean=true
cpu_side=system.cpu_cluster.cpus.itb.walker.port
mem_side=system.cpu_cluster.toL2Bus.slave[2]

[system.cpu_cluster.cpus.itb_walker_cache.tags]
type=LRU
assoc=8
block_size=64
clk_domain=system.cpu_cluster.clk_domain
data_latency=4
default_p_state=UNDEFINED
eventq_index=0
p_state_clk_gate_bins=20
p_state_clk_gate_max=1000000000000
p_state_clk_gate_min=1000
power_model=
sequential_access=false
size=1024
tag_latency=4

[system.cpu_cluster.cpus.tracer]
type=ExeTracer
eventq_index=0

[system.cpu_cluster.cpus.workload]
type=Process
cmd=['/home/yongwoo/CPU2006/462.libquantum/run/run_base_ref_arm.0000/libquantum_base.arm'] 1397 8
cwd=/home/yongwoo/CPU2006/462.libquantum/run/run_base_ref_arm.0000/
drivers=
egid=100
env=
errout=cerr
euid=100
eventq_index=0
executable=/home/yongwoo/CPU2006/462.libquantum/run/run_base_ref_arm.0000/libquantum_base.arm
gid=100
input=cin
kvmInSE=false
maxStackSize=67108864
output=/home/yongwoo/CPU2006/462.libquantum/run/run_base_ref_arm.0000/462.out
pgid=100
pid=100
ppid=0
simpoint=0
system=system
uid=100
useArchPT=false

[system.cpu_cluster.l2]
type=Cache
children=tags
addr_ranges=0:18446744073709551615:0:0:0:0
assoc=16
clk_domain=system.cpu_cluster.clk_domain
clusivity=mostly_excl
data_latency=12
default_p_state=UNDEFINED
demand_mshr_reserve=1
eventq_index=0
is_read_only=false
max_miss_count=0
mshrs=32
p_state_clk_gate_bins=20
p_state_clk_gate_max=1000000000000
p_state_clk_gate_min=1000
power_model=
prefetch_on_access=false
prefetcher=Null
response_latency=5
sequential_access=false
size=4194304
system=system
tag_latency=12
tags=system.cpu_cluster.l2.tags
tgts_per_mshr=20
write_buffers=256
writeback_clean=false
cpu_side=system.cpu_cluster.toL2Bus.master[0]
mem_side=system.membus.slave[1]

[system.cpu_cluster.l2.tags]
type=LRU
assoc=16
block_size=64
clk_domain=system.cpu_cluster.clk_domain
data_latency=12
default_p_state=UNDEFINED
eventq_index=0
p_state_clk_gate_bins=20
p_state_clk_gate_max=1000000000000
p_state_clk_gate_min=1000
power_model=
sequential_access=false
size=4194304
tag_latency=12

[system.cpu_cluster.toL2Bus]
type=CoherentXBar
children=snoop_filter
clk_domain=system.cpu_cluster.clk_domain
default_p_state=UNDEFINED
eventq_index=0
forward_latency=0
frontend_latency=1
p_state_clk_gate_bins=20
p_state_clk_gate_max=1000000000000
p_state_clk_gate_min=1000
point_of_coherency=false
power_model=
response_latency=1
snoop_filter=system.cpu_cluster.toL2Bus.snoop_filter
snoop_response_latency=1
system=system
use_default_range=false
width=64
master=system.cpu_cluster.l2.cpu_side
slave=system.cpu_cluster.cpus.icache.mem_side system.cpu_cluster.cpus.dcache.mem_side system.cpu_cluster.cpus.itb_walker_cache.mem_side system.cpu_cluster.cpus.dtb_walker_cache.mem_side

[system.cpu_cluster.toL2Bus.snoop_filter]
type=SnoopFilter
eventq_index=0
lookup_latency=0
max_capacity=8388608
system=system

[system.cpu_cluster.voltage_domain]
type=VoltageDomain
eventq_index=0
voltage=1.2

[system.dvfs_handler]
type=DVFSHandler
domains=
enable=false
eventq_index=0
sys_clk_domain=system.clk_domain
transition_latency=100000000

[system.mem_ctrls]
type=DRAMCtrl
IDD0=0.008
IDD02=0.06
IDD2N=0.0008
IDD2N2=0.026
IDD2P0=0.0
IDD2P02=0.0
IDD2P1=0.0008
IDD2P12=0.0018
IDD3N=0.002
IDD3N2=0.034
IDD3P0=0.0
IDD3P02=0.0
IDD3P1=0.0014
IDD3P12=0.011
IDD4R=0.002
IDD4R2=0.23
IDD4W=0.002
IDD4W2=0.19
IDD5=0.028
IDD52=0.15
IDD6=0.0005
IDD62=0.0018
VDD=1.8
VDD2=1.2
activation_limit=4
addr_mapping=RoRaBaCoCh
bank_groups_per_rank=0
banks_per_rank=8
burst_length=8
channels=1
clk_domain=system.clk_domain
conf_table_reported=true
default_p_state=UNDEFINED
device_bus_width=32
device_rowbuffer_size=4096
device_size=2147483648
devices_per_rank=1
dll=false
eventq_index=0
in_addr_map=true
kvm_map=true
max_accesses_per_row=16
mem_sched_policy=frfcfs
min_writes_per_switch=16
null=false
p_state_clk_gate_bins=20
p_state_clk_gate_max=1000000000000
p_state_clk_gate_min=1000
page_policy=open_adaptive
power_model=
range=0:2147483647:6:19:0:0
ranks_per_channel=1
read_buffer_size=32
static_backend_latency=10000
static_frontend_latency=10000
tBURST=5000
tCCD_L=0
tCK=1250
tCL=15000
tCS=2500
tRAS=42000
tRCD=18000
tREFI=3900000
tRFC=130000
tRP=18000
tRRD=10000
tRRD_L=0
tRTP=7500
tRTW=2500
tWR=15000
tWTR=7500
tXAW=50000
tXP=7500
tXPDLL=0
tXS=140000
tXSDLL=0
write_buffer_size=64
write_high_thresh_perc=85
write_low_thresh_perc=50
port=system.membus.master[0]

[system.membus]
type=CoherentXBar
children=snoop_filter
clk_domain=system.clk_domain
default_p_state=UNDEFINED
eventq_index=0
forward_latency=4
frontend_latency=3
p_state_clk_gate_bins=20
p_state_clk_gate_max=1000000000000
p_state_clk_gate_min=1000
point_of_coherency=true
power_model=
response_latency=2
snoop_filter=system.membus.snoop_filter
snoop_response_latency=4
system=system
use_default_range=false
width=16
master=system.mem_ctrls.port
slave=system.system_port system.cpu_cluster.l2.mem_side

[system.membus.snoop_filter]
type=SnoopFilter
eventq_index=0
lookup_latency=1
max_capacity=8388608
system=system

[system.voltage_domain]
type=VoltageDomain
eventq_index=0
voltage=3.3

